Matlab files/psse raw file/Maui2022dm_rd_v33.raw
0,    10.00, 33, 0, 1, 60.00     / PSS(R)E 33 RAW created by rawd33  MON, DEC 20 2021  10:37
MECO 2022 DAY MIN -  97.0 MW
67.0 MW DG PV - TOTAL SYSTEM LOAD IN CASE ~164MW
     3,'WLUKU23     ',  23.0000,1,   1,   5,   1,1.00918,  -3.8799,1.10000,0.90000,1.10000,0.90000
     4,'PUUNENE     ',  69.0000,1,   1,   9,   1,1.00381,  -2.6982,1.10000,0.90000,1.10000,0.90000
     5,'MAUI PIN    ',  23.0000,1,   1,   5,   1,1.01028,  -3.8824,1.10000,0.90000,1.10000,0.90000
     7,'WAI WELL    ',  23.0000,1,   1,   6,   1,1.00591,  -3.9421,1.10000,0.90000,1.10000,0.90000
     8,'KAHU SUB    ',  23.0000,1,   1,   5,   1,1.01028,  -3.8824,1.10000,0.90000,1.10000,0.90000
     9,'KAILUA      ',  23.0000,1,   1,   3,   1,0.99759,  -7.5525,1.10000,0.90000,1.10000,0.90000
    12,'MAKAWAO     ',  23.0000,1,   1,   3,   1,0.98976,  -5.0952,1.10000,0.90000,1.10000,0.90000
    13,'KULA 12     ',  12.4700,2,   1,  13, 613,1.00737,  -2.8947,1.10000,0.90000,1.10000,0.90000
    15,'KOKOMO      ',  23.0000,1,   1,   3,   1,0.98848,  -5.2595,1.10000,0.90000,1.10000,0.90000
    16,'HAIKU       ',  23.0000,1,   1,   3,   1,0.98363,  -5.9194,1.10000,0.90000,1.10000,0.90000
    18,'WLUKU HT    ',  23.0000,1,   1,   6,   1,1.00327,  -4.0469,1.10000,0.90000,1.10000,0.90000
    22,'WS PUMP     ',  23.0000,1,   1,   6,   1,1.00313,  -4.0479,1.10000,0.90000,1.10000,0.90000
    23,'PUUKOL B    ',  69.0000,1,  11,   1,   1,1.00699,  -2.5138,1.10000,0.90000,1.10000,0.90000
    25,'WAILEA      ',  69.0000,1,   1,  12,   1,1.01481,  -2.0717,1.10000,0.90000,1.10000,0.90000
    29,'NAPILI A    ',  69.0000,1,  11,   1,   1,1.00587,  -2.5980,1.10000,0.90000,1.10000,0.90000
    30,'MOKUHAU     ',  23.0000,1,   1,   6,   1,1.00451,  -4.0321,1.10000,0.90000,1.10000,0.90000
    31,'KAMOLE      ',  23.0000,1,   1,   3,   1,0.98567,  -5.6209,1.10000,0.90000,1.10000,0.90000
    33,'WS MILL     ',  23.0000,1,   1,   6,   1,1.00852,  -3.9017,1.10000,0.90000,1.10000,0.90000
    34,'LAHAINA     ',  69.0000,1,  11,   1,   1,1.01105,  -2.1860,1.10000,0.90000,1.10000,0.90000
    35,'KIHEI       ',  69.0000,1,   1,  12,   1,1.01397,  -2.1766,1.10000,0.90000,1.10000,0.90000
    39,'MAALAEA     ',  69.0000,1,   1,  11,   1,1.02029,  -1.8022,1.10000,0.90000,1.10000,0.90000
    40,'ONEHEE      ',  23.0000,1,   1,   5,   1,1.00891,  -3.8821,1.10000,0.90000,1.10000,0.90000
    41,'HANA        ',  23.0000,1,   1,   3,   1,0.95010,  -9.6670,1.10000,0.90000,1.10000,0.90000
    42,'KEANAE      ',  23.0000,1,   1,   3,   1,0.98083,  -8.3161,1.10000,0.90000,1.10000,0.90000
    43,'WAIEHU      ',  23.0000,1,   1,   6,   1,1.00531,  -3.9034,1.10000,0.90000,1.10000,0.90000
    44,'DET 03      ',   0.4800,1,   1,  14, 613,0.99417,  -3.1499,1.10000,0.90000,1.10000,0.90000
    45,'HALEKALA    ',   4.1600,1,   1,  14, 613,1.04318,  -3.1405,1.10000,0.90000,1.10000,0.90000
    48,'MAUIBLOC    ',  23.0000,1,   1,   6,   1,1.00878,  -3.8297,1.10000,0.90000,1.10000,0.90000
    50,'MAHINA A    ',  69.0000,1,  11,   1,   1,1.00594,  -2.5909,1.10000,0.90000,1.10000,0.90000
    61,'HOSMER      ',  23.0000,1,   1,  14,   1,0.99455,  -2.9179,1.10000,0.90000,1.10000,0.90000
    64,'PUUNENE     ',  23.0000,1,   1,   4,   1,1.01863,  -3.4953,1.10000,0.90000,1.10000,0.90000
    73,'KUAU        ',  23.0000,1,   1,   2,   1,1.00888,  -3.8690,1.10000,0.90000,1.10000,0.90000
    74,'HUELO       ',  23.0000,1,   1,   3,   1,0.99845,  -7.4885,1.10000,0.90000,1.10000,0.90000
    75,'NEWHDWD     ',  23.0000,1,   1,   4,   1,1.01866,  -3.4857,1.10000,0.90000,1.10000,0.90000
    77,'WAIKAPU     ',  23.0000,1,   1,   6,   1,1.00871,  -3.8306,1.10000,0.90000,1.10000,0.90000
    82,'AMERON      ',  23.0000,1,   1,   4,   1,1.01855,  -3.5069,1.10000,0.90000,1.10000,0.90000
    83,'KEALAHOU    ',  69.0000,1,   1,  13,   1,1.01366,  -2.1824,1.10000,0.90000,1.10000,0.90000
    84,'LAHALUNA    ',  69.0000,1,  11,   1,   1,1.01099,  -2.2341,1.10000,0.90000,1.10000,0.90000
    88,'AMERBLDG    ',  23.0000,1,   1,   4,   1,1.01856,  -3.5068,1.10000,0.90000,1.10000,0.90000
    92,'SPRECK      ',  23.0000,1,   1,   2,   1,1.01182,  -3.7605,1.10000,0.90000,1.10000,0.90000
    93,'PAIAMKA     ',  23.0000,1,   1,   2,   1,1.00912,  -3.8518,1.10000,0.90000,1.10000,0.90000
    97,'KWP         ',  69.0000,1,   1,  11,   1,1.02201,  -0.9922,1.10000,0.90000,1.10000,0.90000
    98,'KAUHIKOA    ',  12.4700,2,   1,   3,   1,1.04141,  -5.6864,1.10000,0.90000,1.10000,0.90000
   101,'KGS-1       ',  11.5000,2,   1,  19,   1,1.00085,  -3.6322,1.10000,0.90000,1.10000,0.90000
   102,'KGS-2       ',  11.5000,2,   1,  19,   1,0.97004,  -3.6701,1.10000,0.90000,1.10000,0.90000
   103,'KGS-3       ',  11.5000,2,   1,  19,   1,0.99071,  -2.8183,1.10000,0.90000,1.10000,0.90000
   104,'KGS-4       ',  11.5000,2,   1,  19,   1,1.00950,  -3.0559,1.10000,0.90000,1.10000,0.90000
   105,'MGS-123     ',   4.1600,2,   1,  20,   1,0.95720,  -1.8022,1.10000,0.90000,1.10000,0.90000
   106,'MGS-458     ',   4.1600,2,   1,  20,   2,0.95651,  -1.8672,1.10000,0.90000,1.10000,0.90000
   107,'MGS-679     ',   4.1600,2,   1,  20,   2,0.95650,  -1.8674,1.10000,0.90000,1.10000,0.90000
   108,'MGS-1011    ',   6.9000,2,   1,  20,   2,0.96938,  -1.8629,1.10000,0.90000,1.10000,0.90000
   109,'MGS-1213    ',   6.9000,2,   1,  20,   2,0.96938,  -1.8629,1.10000,0.90000,1.10000,0.90000
   110,'MGS-X1X2    ',   4.1600,2,   1,  20,   1,0.98105, -31.8022,1.10000,0.90000,1.10000,0.90000
   111,'TO-23 KV SW ',  23.0000,1,   1,   5,   1,1.01116,  -3.8112,1.10000,0.90000,1.10000,0.90000
   112,'MAKA 12     ',  12.4700,2,   1,   3,  12,0.99034,  -5.3563,1.10000,0.90000,1.10000,0.90000
   123,'PUUKB 12    ',  12.4700,2,  11,   1, 823,1.00710,  -3.6435,1.10000,0.90000,1.10000,0.90000
   125,'WAILEA A    ',  12.4700,2,   1,  12,  25,1.00212,  -3.3832,1.10000,0.90000,1.10000,0.90000
   127,'CONCRETE    ',   0.4800,1,   1,   4,  27,1.02300,  -3.5072,1.10000,0.90000,1.10000,0.90000
   129,'NAPILA12    ',  12.4700,2,  11,   1, 823,1.00816,  -3.4478,1.10000,0.90000,1.10000,0.90000
   130,'BUS 13 UFLS ',  12.4700,2,   1,  13, 613,1.00737,  -2.8947,1.10000,0.90000,1.10000,0.90000
   134,'LAHAINA1    ',  12.4700,2,  11,   1,  34,1.00564,  -3.0899,1.10000,0.90000,1.10000,0.90000
   135,'KIHEI A     ',  12.4700,2,   1,  12,  35,1.00804,  -4.5954,1.10000,0.90000,1.10000,0.90000
   136,'WAIINU B    ',  12.4700,2,   1,   5, 636,1.00336,  -3.9445,1.10000,0.90000,1.10000,0.90000
   139,'MAALA A     ',  12.4700,2,   1,  11,  39,1.00723,  -3.3482,1.10000,0.90000,1.10000,0.90000
   141,'HANA 1      ',   2.4000,2,   1,   3,  41,0.97520, -11.8642,1.10000,0.90000,1.10000,0.90000
   142,'KEANAE      ',   2.4000,2,   1,   3,  42,0.97115,  -8.6509,1.10000,0.90000,1.10000,0.90000
   145,'SUMMITAP    ',  23.0000,1,   1,  14,   1,0.99384,  -2.8973,1.10000,0.90000,1.10000,0.90000
   148,'MAUIBLOC    ',   0.4800,1,   1,   6,  48,1.05116,  -3.9330,1.10000,0.90000,1.10000,0.90000
   150,'MAHINA12    ',  12.4700,2,  11,   1, 823,1.00377,  -5.2230,1.10000,0.90000,1.10000,0.90000
   155,'KULA AG     ',  12.4700,2,   1,  13, 655,1.00407,  -2.1170,1.10000,0.90000,1.10000,0.90000
   161,'HOSMER      ',   2.4000,1,   1,  14, 613,0.93890,  -6.4457,1.10000,0.90000,1.10000,0.90000
   164,'PUUNENE     ',   7.2000,1,   1,   4,  64,1.02221,  -3.5474,1.10000,0.90000,1.10000,0.90000
   173,'KUAU A      ',   4.1600,2,   1,   2,  73,0.99268,  -4.9627,1.10000,0.90000,1.10000,0.90000
   174,'HUELO 1     ',   2.4000,2,   1,   3,  74,0.99789,  -7.3007,1.10000,0.90000,1.10000,0.90000
   175,'NEWHDWD     ',  12.4700,2,   1,   4,  75,1.06910,  -3.4321,1.10000,0.90000,1.10000,0.90000
   177,'WAIKAP12    ',  12.4700,1,   1,   6,  77,1.05532,  -4.1090,1.10000,0.90000,1.10000,0.90000
   182,'AMERON      ',   0.4800,1,   1,   4,  82,1.04998,  -3.5156,1.10000,0.90000,1.10000,0.90000
   188,'AMERBLDG    ',   0.4800,1,   1,   4,  88,1.02156,  -3.5914,1.10000,0.90000,1.10000,0.90000
   192,'SPRECK      ',   4.6000,2,   1,   2,  92,1.01444,  -3.8075,1.10000,0.90000,1.10000,0.90000
   200,'KAHULUI     ',  23.0000,1,   1,   5,   1,1.02000,  -3.4975,1.10000,0.90000,1.10000,0.90000
   202,'KANAHA23    ',  23.0000,1,   1,   5,   1,1.01866,  -3.5177,1.10000,0.90000,1.10000,0.90000
   203,'KANAH A     ',  12.4700,2,   1,   7, 602,1.00283,  -5.2089,1.10000,0.90000,1.10000,0.90000
   204,'KANAH B     ',  12.4700,2,   1,   7, 602,1.00384,  -4.3189,1.10000,0.90000,1.10000,0.90000
   205,'KANAH C     ',  12.4700,2,   1,   7, 602,1.00020,  -4.7321,1.10000,0.90000,1.10000,0.90000
   206,'KWPII       ',  69.0000,1,   1,  11,   1,1.02064,  -1.3526,1.10000,0.90000,1.10000,0.90000
   209,'KAILUA A    ',   2.4000,2,   1,   3,   9,0.99990,  -8.1363,1.10000,0.90000,1.10000,0.90000
   213,'KULA 23     ',  23.0000,1,   1,  14,   1,1.00236,  -2.9256,1.10000,0.90000,1.10000,0.90000
   216,'HAIKU 2     ',  12.4700,2,   1,   3,  16,0.99198,  -6.1656,1.10000,0.90000,1.10000,0.90000
   217,'PUKLN23     ',  23.0000,1,   1,   3,   1,1.00097,  -3.9992,1.10000,0.90000,1.10000,0.90000
   223,'PUUKOL A    ',  69.0000,1,  11,   1,   1,1.00678,  -2.5260,1.10000,0.90000,1.10000,0.90000
   225,'WAILEA B    ',  12.4700,2,   1,  12,  25,1.00521,  -4.1289,1.10000,0.90000,1.10000,0.90000
   234,'LAHAINA 2   ',  12.4700,2,  11,   1,  34,1.00701,  -2.8156,1.10000,0.90000,1.10000,0.90000
   235,'KIHEI B     ',  12.4700,2,   1,  12,  35,1.00357,  -4.5707,1.10000,0.90000,1.10000,0.90000
   236,'WAIINU23    ',  23.0000,1,   1,   5,   1,1.01341,  -3.7288,1.10000,0.90000,1.10000,0.90000
   241,'HANA 2      ',   2.4000,2,   1,   3,  41,0.97135, -10.8127,1.10000,0.90000,1.10000,0.90000
   250,'MAHINA B    ',  69.0000,1,  11,   1,   1,1.00566,  -2.6153,1.10000,0.90000,1.10000,0.90000
   301,'CT-1 M14    ',  13.8000,3,   1,  20,   2,0.99300,   0.0000,1.10000,0.90000,1.10000,0.90000
   302,'CT-2 M16    ',  13.8000,2,   1,  20,   2,1.02825,  -0.1428,1.10000,0.90000,1.10000,0.90000
   303,'ST-1 M15    ',  13.8000,2,   1,  20,   2,1.01760,  -1.1550,1.10000,0.90000,1.10000,0.90000
   304,'CT-3 M17    ',  13.8000,2,   1,  20,   2,0.95141,  -1.8719,1.10000,0.90000,1.10000,0.90000
   305,'CT-4 M19    ',  13.8000,2,   1,  20,   2,0.95141,  -1.8719,1.10000,0.90000,1.10000,0.90000
   306,'ST-2 M18    ',  13.8000,2,   1,  20,   2,0.95116,  -1.8949,1.10000,0.90000,1.10000,0.90000
   325,'WAILEA C    ',  12.4700,2,   1,  12,  25,1.00408,  -3.1406,1.10000,0.90000,1.10000,0.90000
   335,'KIHEI C     ',  12.4700,2,   1,  12,  35,1.00392,  -2.9924,1.10000,0.90000,1.10000,0.90000
   336,'WAIINU C    ',  12.4700,2,   1,   5, 636,1.00494,  -3.1956,1.10000,0.90000,1.10000,0.90000
   401,'PUUNENEA    ',  69.0000,1,   1,   9,   1,1.00255,  -2.7723,1.10000,0.90000,1.10000,0.90000
   402,'PUUNENEB    ',  69.0000,1,   1,   9,   1,1.00524,  -2.6193,1.10000,0.90000,1.10000,0.90000
   403,'WLUKU A     ',   4.1600,2,   1,   5,   3,1.03418,  -4.3385,1.10000,0.90000,1.10000,0.90000
   404,'WLUKU B     ',   4.1600,2,   1,   5,   3,1.00339,  -4.4591,1.10000,0.90000,1.10000,0.90000
   405,'WLUKU C     ',  12.4700,2,   1,   5,   3,0.99447,  -3.8856,1.10000,0.90000,1.10000,0.90000
   407,'WAI WELL    ',   4.1600,1,   1,   6,   7,0.99134,  -4.5555,1.10000,0.90000,1.10000,0.90000
   415,'WLUKU D     ',  12.4700,2,   1,   5,   3,0.99286,  -5.2435,1.10000,0.90000,1.10000,0.90000
   418,'WLUKU HT    ',   4.1600,2,   1,   6,  18,0.99366,  -4.9465,1.10000,0.90000,1.10000,0.90000
   422,'WSCO PMP    ',   2.4000,1,   1,   6,  22,1.05589,  -4.1944,1.10000,0.90000,1.10000,0.90000
   425,'WAILEA D    ',  12.4700,2,   1,  12,  25,1.00248,  -3.1666,1.10000,0.90000,1.10000,0.90000
   430,'MOKU PMP    ',   2.4000,1,   1,   6,  30,1.00053,  -4.6471,1.10000,0.90000,1.10000,0.90000
   431,'KAMOLE 4    ',   4.1600,2,   1,   3,  31,0.98837,  -6.2380,1.10000,0.90000,1.10000,0.90000
   435,'KIHEI D     ',  12.4700,2,   1,  12,   1,1.00778,  -2.9360,1.10000,0.90000,1.10000,0.90000
   436,'WAIINU A    ',   4.1600,2,   1,   5, 636,0.99877,  -3.7721,1.10000,0.90000,1.10000,0.90000
   440,'ONEHEE 4    ',   4.1600,2,   1,   5,  40,0.99208,  -5.3580,1.10000,0.90000,1.10000,0.90000
   443,'WAIEHU12    ',  12.4700,2,   1,   6,  43,0.99901,  -3.8115,1.10000,0.90000,1.10000,0.90000
   493,'PAIAMKA1    ',   4.1600,2,   1,   2,  93,0.99902,  -4.6191,1.10000,0.90000,1.10000,0.90000
   501,'AUX K1      ',   0.4800,1,   1,  19,   2,0.92307,  -4.5792,1.10000,0.90000,1.10000,0.90000
   502,'AUX K2      ',   0.4800,1,   1,  19,   2,0.88774,  -5.0116,1.10000,0.90000,1.10000,0.90000
   503,'AUX K3      ',   0.4800,1,   1,  19,   2,0.86044,  -6.0735,1.10000,0.90000,1.10000,0.90000
   504,'AUX K4      ',   0.4800,1,   1,  19,   2,0.90944,  -6.0038,1.10000,0.90000,1.10000,0.90000
   511,'MPINE       ',  12.4700,1,   1,   5,   5,1.00699,  -3.8824,1.10000,0.90000,1.10000,0.90000
   534,'LAHAINA5    ',  12.4700,2,  11,   1,  34,1.00309,  -3.7888,1.10000,0.90000,1.10000,0.90000
   602,'KANAHA69    ',  69.0000,1,   1,   7,   1,1.00186,  -2.8250,1.10000,0.90000,1.10000,0.90000
   613,'KULA 69     ',  69.0000,1,   1,  13,   1,1.01031,  -2.3609,1.10000,0.90000,1.10000,0.90000
   617,'PUKLN69     ',  69.0000,1,   1,  13,   1,1.00464,  -2.7351,1.10000,0.90000,1.10000,0.90000
   623,'PUUKA 69    ',  69.0000,1,  11,   1,   1,1.00678,  -2.5260,1.10000,0.90000,1.10000,0.90000
   629,'NAPILI B    ',  69.0000,1,  11,   1,   1,1.00520,  -2.6534,1.10000,0.90000,1.10000,0.90000
   636,'WAIINU      ',  69.0000,1,   1,  10,   1,1.01185,  -2.2147,1.10000,0.90000,1.10000,0.90000
   650,'MAHINA B    ',  69.0000,1,  11,   1,   1,1.00566,  -2.6153,1.10000,0.90000,1.10000,0.90000
   655,'KULA AG     ',  69.0000,1,   1,  13,   1,1.01426,  -2.1506,1.10000,0.90000,1.10000,0.90000
   671,'JCT B       ',  23.0000,1,   1,   6,   1,1.01098,  -3.8156,1.10000,0.90000,1.10000,0.90000
   723,'PUUKA 12    ',  12.4700,2,  11,   1, 623,1.00444,  -6.0471,1.10000,0.90000,1.10000,0.90000
   729,'NAPILB12    ',  12.4700,2,  11,   1, 623,1.00518,  -3.8030,1.10000,0.90000,1.10000,0.90000
   750,'MAHINB12    ',  12.4700,2,  11,   1, 623,1.00848,  -3.5806,1.10000,0.90000,1.10000,0.90000
   803,'KAHUL 3     ',  12.4700,2,   1,   5,   8,0.99564,  -6.8785,1.10000,0.90000,1.10000,0.90000
   804,'HC&S TG4    ',  13.8000,2,   1,   9,   1,0.93675,  -2.6982,1.10000,0.90000,1.10000,0.90000
   806,'TOHANA      ',  23.0000,1,   1,   2,   1,1.01518,  -3.6412,1.10000,0.90000,1.10000,0.90000
   809,'REG         ',  23.0000,1,   1,   3,   1,0.97511,  -6.5811,1.10000,0.90000,1.10000,0.90000
   812,'MAKW JCT    ',  23.0000,1,   1,   3,   1,0.99494,  -4.5768,1.10000,0.90000,1.10000,0.90000
   813,'HOS JCT     ',  23.0000,1,   1,  14,   1,0.99603,  -2.9015,1.10000,0.90000,1.10000,0.90000
   816,'HAIK JCT    ',  23.0000,1,   1,   3,   1,0.98314,  -5.9693,1.10000,0.90000,1.10000,0.90000
   817,'PUKLN A     ',  12.4700,2,   1,  13, 617,1.00306,  -2.9322,1.10000,0.90000,1.10000,0.90000
   819,'PUUN JCT    ',  23.0000,1,   1,   4,   1,1.01864,  -3.5099,1.10000,0.90000,1.10000,0.90000
   823,'PUUKB 69    ',  69.0000,1,  11,   1,   1,1.00722,  -2.4977,1.10000,0.90000,1.10000,0.90000
   826,'            ',  23.0000,1,   1,   4,   1,1.01862,  -3.5064,1.10000,0.90000,1.10000,0.90000
   827,'CONC TAP    ',  23.0000,1,   1,   4,   1,1.01856,  -3.5068,1.10000,0.90000,1.10000,0.90000
   831,'KAML TAP    ',  23.0000,1,   1,   3,   1,0.98594,  -5.5921,1.10000,0.90000,1.10000,0.90000
   834,'LAHAIN 4    ',  12.4700,2,  11,   1,  34,1.00675,  -1.9010,1.10000,0.90000,1.10000,0.90000
   838,'            ',  23.0000,1,   1,   6,   1,1.00887,  -3.8284,1.10000,0.90000,1.10000,0.90000
   840,' TO-ONEE    ',  23.0000,1,   1,   5,   1,1.01031,  -3.8768,1.10000,0.90000,1.10000,0.90000
   844,'KAHUL 4     ',   4.1600,2,   1,   5,   8,0.99135,  -3.9716,1.10000,0.90000,1.10000,0.90000
   845,'KAHUL 5     ',   4.1600,2,   1,   5,   8,0.99101,  -4.0247,1.10000,0.90000,1.10000,0.90000
   846,'KAHUL 6     ',   4.1600,2,   1,   5,   8,0.99338,  -3.9514,1.10000,0.90000,1.10000,0.90000
   848,'JCT C       ',  23.0000,1,   1,   4,   1,1.01866,  -3.4857,1.10000,0.90000,1.10000,0.90000
   849,'REGULATO    ',  23.0000,1,   1,   3,   1,1.00625,  -6.9241,1.10000,0.90000,1.10000,0.90000
   850,'MAHINA A    ',  69.0000,1,  11,   1,   1,1.00628,  -2.5668,1.10000,0.90000,1.10000,0.90000
   858,'PUUOHALA    ',  23.0000,1,   1,   6,   1,1.00713,  -3.9476,1.10000,0.90000,1.10000,0.90000
   892,'BALWNPK     ',  23.0000,1,   1,   2,   1,1.01033,  -3.8161,1.10000,0.90000,1.10000,0.90000
   893,'PAIAMKA     ',  23.0000,1,   1,   2,   1,1.00933,  -3.8521,1.10000,0.90000,1.10000,0.90000
   898,'SUB 98 TAP  ',  23.0000,1,   1,   3,   1,0.98528,  -5.6818,1.10000,0.90000,1.10000,0.90000
   917,'PUKLN B     ',  12.4700,2,   1,  13, 617,1.00198,  -3.1780,1.10000,0.90000,1.10000,0.90000
   971,'KWP34       ',  34.5000,1,   1,  11,   1,0.99540,   1.9061,1.10000,0.90000,1.10000,0.90000
  1203,'AWFTAP69    ',  69.0000,1,   1,  12,   1,1.01619,  -1.9482,1.10000,0.90000,1.10000,0.90000
  1230,'BUS 123 UFLS',  12.4700,2,  11,   1, 823,1.00710,  -3.6435,1.10000,0.90000,1.10000,0.90000
  2030,'BUS 203 UFLS',  12.4700,2,   1,   7, 602,1.00283,  -5.2089,1.10000,0.90000,1.10000,0.90000
  2060,'KWPII34     ',  34.5000,1,   1,  11,   1,1.01828,   1.5473,1.10000,0.90000,1.10000,0.90000
  2061,'KWPII_CLT1  ',  34.5000,1,   1,  11,   1,1.01937,   1.5769,1.10000,0.90000,1.10000,0.90000
  2062,'KWPII-BESS  ',   0.4800,1,   1,  11,   1,1.01828,   1.5473,1.10000,0.90000,1.10000,0.90000
  2090,'KUIHELANI   ',  69.0000,1,   1,   9,   1,1.00943,  -2.3881,1.10000,0.90000,1.10000,0.90000
  2091,'KUIHELANI A ',  12.4700,1,   1,   5,   1,1.00355,  -2.3904,1.10000,0.90000,1.10000,0.90000
  4002,'PUUN 23     ',  23.0000,1,   1,   9,   1,1.02172,  -3.3414,1.10000,0.90000,1.10000,0.90000
  4250,'BUS 425 UFLS',  12.4700,2,   1,  12,  25,1.00248,  -3.1666,1.10000,0.90000,1.10000,0.90000
  4430,'BUS 443 UFLS',  12.4700,2,   1,   6,  43,0.99901,  -3.8115,1.10000,0.90000,1.10000,0.90000
  5340,'BUS 534 UFLS',  12.4700,2,  11,   1,  34,1.00309,  -3.7888,1.10000,0.90000,1.10000,0.90000
  7290,'BUS 729 UFLS',  12.4700,2,  11,   1, 623,1.00518,  -3.8030,1.10000,0.90000,1.10000,0.90000
  8340,'BUS 834 UFLS',  12.4700,2,  11,   1,  34,1.00675,  -1.9010,1.10000,0.90000,1.10000,0.90000
 12031,'BURIED_TERT ',  13.8000,1,   1,  12,   1,0.98393,   2.5205,1.10000,0.90000,1.10000,0.90000
 12032,'AUWAHI34    ',  34.5000,1,   1,  12,   1,0.98252,   2.1900,1.10000,0.90000,1.10000,0.90000
 12033,'XP_BESS     ',   0.4800,1,   1,  12,   1,0.98252,   2.1900,1.10000,0.90000,1.10000,0.90000
 12034,'AWFTOTAL    ',  34.5000,1,   1,  12,   1,0.98252,   2.1900,1.10000,0.90000,1.10000,0.90000
 12035,'CKT1 BUS A  ',  34.5000,1,   1,  12,   1,0.99774,   4.7688,1.10000,0.90000,1.10000,0.90000
 12036,'AUWAHI_COL1 ',  34.5000,1,   1,  12,   1,0.99990,   5.0211,1.10000,0.90000,1.10000,0.90000
 12037,'CKT2 BUS B  ',  34.5000,1,   1,  12,   1,0.99824,   4.7663,1.10000,0.90000,1.10000,0.90000
 12038,'AUWAHI_COL2 ',  34.5000,1,   1,  12,   1,1.00104,   5.0459,1.10000,0.90000,1.10000,0.90000
 90971,'KWPI_1      ',   0.5750,2,   1,  11,   1,1.00048,   4.5716,1.10000,0.90000,1.10000,0.90000
 92031,'AUWAHI_SIEM1',   0.6900,2,   1,  12,   1,1.00430,   7.2367,1.10000,0.90000,1.10000,0.90000
 92032,'AUWAHI_SIEM2',   0.6900,2,   1,  12,   1,1.00544,   7.2565,1.10000,0.90000,1.10000,0.90000
 92061,'KWPII_GEN1  ',   0.6900,2,   1,  11,   1,1.02404,   3.8962,1.10000,0.90000,1.10000,0.90000
 93101,'PROJ 1 POI A',  69.0000,1,   1,   9,   1,1.01106,  -2.2997,1.10000,0.90000,1.10000,0.90000
 93102,'PROJ 1 POI B',  69.0000,1,   1,   9,   1,1.01106,  -2.2997,1.10000,0.90000,1.10000,0.90000
 95000,'SMRR_KIHEI  ',  12.4700,2,  70,  70,   1,1.00357,  -4.5707,1.10000,0.90000,1.10000,0.90000
 96000,'KUIA_SOLAR  ',  12.4700,2,  70,  70,   1,1.00675,  -1.9010,1.10000,0.90000,1.10000,0.90000
 0 /End of Bus data, Begin Load data
    13,'1 ',1,   1,  13,     1.711,     0.437,     0.000,     0.000,     0.000,     0.000, 613,1,0
    44,'1 ',1,   1,  14,     0.160,     0.120,     0.000,     0.000,     0.000,     0.000, 613,1,0
    45,'1 ',1,   1,  14,     0.046,     0.034,     0.000,     0.000,     0.000,     0.000, 613,1,0
    98,'1 ',1,   1,   3,     0.192,     0.005,     0.000,     0.000,     0.000,     0.000, 898,1,0
   106,'1 ',1,   1,  20,     0.200,     0.115,     0.000,     0.000,     0.000,     0.000,   2,0,0
   107,'1 ',1,   1,  20,     0.200,     0.115,     0.000,     0.000,     0.000,     0.000,   2,0,0
   108,'1 ',1,   1,  20,     0.300,     0.170,     0.000,     0.000,     0.000,     0.000,   2,0,0
   109,'1 ',1,   1,  12,     0.300,     0.170,     0.000,     0.000,     0.000,     0.000,   2,0,0
   112,'1 ',1,   1,   3,     1.396,     0.130,     0.000,     0.000,     0.000,     0.000,  12,1,0
   123,'1 ',1,  11,   1,     1.640,     0.210,     0.000,     0.000,     0.000,     0.000, 823,1,0
   125,'1 ',1,   1,  12,     3.759,     0.391,     0.000,     0.000,     0.000,     0.000,  25,1,0
   127,'1 ',1,   1,   4,     0.000,     0.000,     0.000,     0.000,     0.000,     0.000,  27,1,0
   129,'1 ',1,  11,   1,     1.915,     0.304,     0.000,     0.000,     0.000,     0.000, 823,1,0
   130,'1 ',1,   1,  13,     1.711,     0.437,     0.000,     0.000,     0.000,     0.000, 613,1,0
   134,'1 ',1,  11,   1,     2.067,     0.179,     0.000,     0.000,     0.000,     0.000,  34,1,0
   135,'1 ',1,   1,  12,     6.306,     0.614,     0.000,     0.000,     0.000,     0.000,  35,1,0
   136,'1 ',1,   1,   5,     3.962,     0.467,     0.000,     0.000,     0.000,     0.000, 636,1,0
   139,'1 ',1,   1,  11,     4.869,     2.152,     0.000,     0.000,     0.000,     0.000,  39,1,0
   141,'1 ',1,   1,   3,     0.719,     0.100,     0.000,     0.000,     0.000,     0.000,  41,1,0
   142,'1 ',1,   1,   3,     0.077,     0.004,     0.000,     0.000,     0.000,     0.000,  42,1,0
   148,'1 ',1,   1,   6,     0.025,     0.016,     0.000,     0.000,     0.000,     0.000,  48,1,0
   150,'1 ',1,  11,   1,     6.530,     1.047,     0.000,     0.000,     0.000,     0.000, 823,1,0
   155,'1 ',1,   1,  13,     0.271,     0.006,     0.000,     0.000,     0.000,     0.000, 655,1,0
   161,'1 ',1,   1,  14,     0.371,     0.278,     0.000,     0.000,     0.000,     0.000, 613,1,0
   164,'1 ',1,   1,   4,     0.007,     0.005,     0.000,     0.000,     0.000,     0.000,  64,1,0
   173,'1 ',1,   1,   2,     0.607,     0.236,     0.000,     0.000,     0.000,     0.000,  73,1,0
   174,'1 ',1,   1,   3,     0.081,     0.002,     0.000,     0.000,     0.000,     0.000,  74,1,0
   175,'1 ',1,   1,   4,     0.157,     0.004,     0.000,     0.000,     0.000,     0.000,  75,1,0
   177,'1 ',1,   1,   6,     0.390,     0.241,     0.000,     0.000,     0.000,     0.000,  77,1,0
   182,'1 ',1,   1,   4,     0.006,     0.005,     0.000,     0.000,     0.000,     0.000,  82,1,0
   188,'1 ',1,   1,   4,     0.006,     0.005,     0.000,     0.000,     0.000,     0.000,  88,1,0
   192,'1 ',1,   1,   2,     0.575,     0.044,     0.000,     0.000,     0.000,     0.000,  92,1,0
   203,'1 ',1,   1,   7,     6.136,     0.534,     0.000,     0.000,     0.000,     0.000, 602,1,0
   204,'1 ',1,   1,   7,     3.355,     0.587,     0.000,     0.000,     0.000,     0.000, 602,1,0
   205,'1 ',1,   1,   7,     5.079,     1.935,     0.000,     0.000,     0.000,     0.000, 602,1,0
   209,'1 ',1,   1,   3,     0.061,     0.002,     0.000,     0.000,     0.000,     0.000,   9,1,0
   216,'1 ',1,   1,   3,     1.217,     0.044,     0.000,     0.000,     0.000,     0.000,  16,1,0
   225,'1 ',1,   1,  12,     5.281,     0.638,     0.000,     0.000,     0.000,     0.000,  25,1,0
   234,'1 ',1,  11,   1,     2.455,     0.242,     0.000,     0.000,     0.000,     0.000,  34,1,0
   235,'1 ',1,   1,  12,    16.709,     0.816,     0.000,     0.000,     0.000,     0.000,  35,1,0
   241,'1 ',1,   1,   3,     0.726,     0.100,     0.000,     0.000,     0.000,     0.000,  41,1,0
   301,'1 ',1,   1,  20,     0.300,     0.170,     0.000,     0.000,     0.000,     0.000,   2,0,0
   302,'1 ',1,   1,  20,     0.300,     0.170,     0.000,     0.000,     0.000,     0.000,   2,0,0
   303,'1 ',1,   1,  20,     0.400,     0.230,     0.000,     0.000,     0.000,     0.000,   2,0,0
   304,'1 ',1,   1,  20,     0.300,     0.170,     0.000,     0.000,     0.000,     0.000,   2,0,0
   305,'1 ',1,   1,  20,     0.300,     0.170,     0.000,     0.000,     0.000,     0.000,   2,0,0
   306,'1 ',1,   1,  20,     0.400,     0.230,     0.000,     0.000,     0.000,     0.000,   2,0,0
   325,'1 ',1,   1,  12,     2.409,     0.319,     0.000,     0.000,     0.000,     0.000,  25,1,0
   335,'1 ',1,   1,  12,     2.076,     0.211,     0.000,     0.000,     0.000,     0.000,  35,1,0
   336,'1 ',1,   1,   5,     8.169,     0.151,     0.000,     0.000,     0.000,     0.000, 636,1,0
   403,'1 ',1,   1,   5,     0.651,     0.241,     0.000,     0.000,     0.000,     0.000,   3,1,0
   404,'1 ',1,   1,   5,     0.720,     0.313,     0.000,     0.000,     0.000,     0.000,   3,1,0
   405,'1 ',1,   1,   5,     0.586,     0.169,     0.000,     0.000,     0.000,     0.000,   3,1,0
   407,'1 ',1,   1,   6,     0.372,     0.231,     0.000,     0.000,     0.000,     0.000,   7,1,0
   415,'1 ',1,   1,   5,     3.871,     1.369,     0.000,     0.000,     0.000,     0.000,   3,1,0
   418,'1 ',1,   1,   6,     1.511,     0.811,     0.000,     0.000,     0.000,     0.000,  18,1,0
   422,'1 ',1,   1,   6,     0.224,     0.139,     0.000,     0.000,     0.000,     0.000,  22,1,0
   425,'1 ',1,   1,  12,     1.852,     0.158,     0.000,     0.000,     0.000,     0.000,  25,1,0
   430,'1 ',1,   1,   6,     0.361,     0.224,     0.000,     0.000,     0.000,     0.000,  30,1,0
   431,'1 ',1,   1,   3,     0.945,     0.019,     0.000,     0.000,     0.000,     0.000,  31,1,0
   435,'1 ',1,   1,  12,     4.130,     0.253,     0.000,     0.000,     0.000,     0.000,  35,1,0
   436,'1 ',1,   1,   5,     0.169,     0.008,     0.000,     0.000,     0.000,     0.000, 636,1,0
   440,'1 ',1,   1,   5,     1.437,     0.642,     0.000,     0.000,     0.000,     0.000,  40,1,0
   443,'1 ',1,   1,   6,     0.611,     0.046,     0.000,     0.000,     0.000,     0.000,  43,1,0
   493,'1 ',1,   1,   2,     1.366,     0.608,     0.000,     0.000,     0.000,     0.000,  93,1,0
   501,'1 ',1,   1,  19,     0.300,     0.450,     0.000,     0.000,     0.000,     0.000,   2,0,0
   502,'1 ',1,   1,  19,     0.300,     0.450,     0.000,     0.000,     0.000,     0.000,   2,0,0
   503,'1 ',1,   1,  19,     0.700,     1.049,     0.000,     0.000,     0.000,     0.000,   2,0,0
   504,'1 ',1,   1,  19,     0.700,     1.049,     0.000,     0.000,     0.000,     0.000,   2,0,0
   511,'1 ',0,   1,   5,     0.030,     0.022,     0.000,     0.000,     0.000,     0.000,   5,1,0
   534,'1 ',1,  11,   1,     0.857,     0.096,     0.000,     0.000,     0.000,     0.000,  34,1,0
   723,'1 ',1,  11,   1,     8.115,     1.103,     0.000,     0.000,     0.000,     0.000, 623,1,0
   729,'1 ',1,  11,   1,     1.752,     0.130,     0.000,     0.000,     0.000,     0.000, 623,1,0
   750,'1 ',1,  11,   1,     3.238,     0.281,     0.000,     0.000,     0.000,     0.000, 623,1,0
   803,'1 ',1,   1,   5,     6.049,     2.409,     0.000,     0.000,     0.000,     0.000,   8,1,0
   817,'1 ',1,   1,  13,     1.163,     0.032,     0.000,     0.000,     0.000,     0.000, 617,1,0
   834,'1 ',1,  11,   1,     2.199,     0.166,     0.000,     0.000,     0.000,     0.000,  34,1,0
   844,'1 ',1,   1,   5,     0.463,     0.112,     0.000,     0.000,     0.000,     0.000,   8,1,0
   845,'1 ',1,   1,   5,     0.436,     0.134,     0.000,     0.000,     0.000,     0.000,   8,1,0
   846,'1 ',1,   1,   5,     0.219,     0.051,     0.000,     0.000,     0.000,     0.000,   8,1,0
   917,'1 ',1,   1,  13,     2.710,     0.043,     0.000,     0.000,     0.000,     0.000, 617,1,0
  1230,'1 ',1,  11,   1,     1.640,     0.210,     0.000,     0.000,     0.000,     0.000, 823,1,0
  2030,'1 ',1,   1,   7,     6.136,     0.534,     0.000,     0.000,     0.000,     0.000, 602,1,0
  2062,'1 ',0,   1,  11,     0.000,     0.000,     0.000,     0.000,     0.000,     0.000,   1,1,0
  2091,'1 ',1,   1,   5,     0.000,     0.000,     0.000,     0.000,     0.000,     0.000,   1,1,0
  4250,'1 ',1,   1,  12,     1.852,     0.158,     0.000,     0.000,     0.000,     0.000,  25,1,0
  4430,'1 ',1,   1,   6,     0.971,     0.072,     0.000,     0.000,     0.000,     0.000,  43,1,0
  5340,'1 ',1,  11,   1,     3.930,     0.442,     0.000,     0.000,     0.000,     0.000,  34,1,0
  7290,'1 ',1,  11,   1,     1.752,     0.130,     0.000,     0.000,     0.000,     0.000, 623,1,0
  8340,'1 ',1,  11,   1,     1.498,     0.099,     0.000,     0.000,     0.000,     0.000,  34,1,0
 12033,'1 ',1,   1,  12,     0.000,     0.000,     0.000,     0.000,     0.000,     0.000,   1,0,0
 0 /End of Load data, Begin Fixed shunt data
 12034,'1 ',1,     0.000,     5.600
 0 /End of Fixed shunt data, Begin Generator data
    13,'P1',     0.117,     0.000,     0.000,     0.000,1.00000,     0,     0.248, 0.00000E+0, 9.99900E+3, 0.00000E+0, 0.00000E+0,1.00000,1,  100.0,     0.248,     0.000,   1,1.0000,    ,      ,    ,      ,    ,      ,1, 1.0000
    13,'P2',     0.483,     0.000,     0.000,     0.000,1.00000,     0,     0.929, 0.00000E+0, 9.99900E+3, 0.00000E+0, 0.00000E+0,1.00000,1,  100.0,     0.929,     0.000,   1,1.0000,    ,      ,    ,      ,    ,      ,1, 1.0000
    13,'P3',     0.606,    -0.123,    -0.123,    -0.123,1.00000,     0,     1.466, 0.00000E+0, 9.99900E+3, 0.00000E+0, 0.00000E+0,1.00000,1,  100.0,     1.437,     0.000,   1,1.0000,    ,      ,    ,      ,    ,      ,1, 1.0000
    98,'P1',     0.032,     0.000,     0.000,     0.000,1.00000,     0,     0.068, 0.00000E+0, 9.99900E+3, 0.00000E+0, 0.00000E+0,1.00000,1,  100.0,     0.068,     0.000,   1,1.0000,    ,      ,    ,      ,    ,      ,1, 1.0000
    98,'P3',     0.148,    -0.030,    -0.030,    -0.030,1.00000,     0,     0.359, 0.00000E+0, 9.99900E+3, 0.00000E+0, 0.00000E+0,1.00000,1,  100.0,     0.351,     0.000,   1,1.0000,    ,      ,    ,      ,    ,      ,1, 1.0000
   101,'1 ',     2.370,     0.777,     3.000,     0.000,1.02000,   200,     6.250, 0.00000E+0, 1.08700E-1, 0.00000E+0, 0.00000E+0,1.00000,0,  100.0,     5.500,     0.000,   1,1.0000
   102,'2 ',     0.000,     2.038,     3.000,     0.000,1.02000,   200,     6.250, 0.00000E+0, 1.08700E-1, 0.00000E+0, 0.00000E+0,1.00000,0,  100.0,     5.500,     0.000,   1,1.0000
   103,'3 ',     3.000,     3.915,     7.100,     0.000,1.02000,   200,    13.529, 0.00000E+0, 1.18000E-1, 0.00000E+0, 0.00000E+0,1.00000,1,  100.0,    12.000,     0.000,   1,1.0000
   104,'4 ',     3.000,     3.915,     9.375,     0.000,1.02000,   200,    15.625, 0.00000E+0, 1.03300E-1, 0.00000E+0, 0.00000E+0,1.00000,1,  100.0,    13.000,     0.000,   1,1.0000
   105,'1 ',     0.000,     1.274,     1.875,     0.000,1.02500,    39,     3.440, 0.00000E+0, 2.98000E-1, 0.00000E+0, 0.00000E+0,1.00000,0,  100.0,     2.750,     0.000,   1,1.0000
   105,'2 ',     0.000,     1.010,     1.875,     0.000,1.02500,    39,     3.440, 0.00000E+0, 2.98000E-1, 0.00000E+0, 0.00000E+0,1.00000,0,  100.0,     2.750,     0.000,   1,1.0000
   105,'3 ',     0.000,     0.768,     1.875,     0.000,1.02500,    39,     3.440, 0.00000E+0, 2.98000E-1, 0.00000E+0, 0.00000E+0,1.00000,0,  100.0,     2.750,     0.000,   1,1.0000
   106,'4 ',     0.000,     0.559,     4.200,     0.000,1.02500,    39,     7.000, 0.00000E+0, 2.20000E-1, 0.00000E+0, 0.00000E+0,1.00000,0,  100.0,     6.160,     0.000,   1,1.0000
   106,'5 ',     0.000,     0.558,     4.200,     0.000,1.02500,    39,     7.000, 0.00000E+0, 2.20000E-1, 0.00000E+0, 0.00000E+0,1.00000,0,  100.0,     6.160,     0.000,   1,1.0000
   106,'8 ',     0.000,     0.617,     4.200,     0.000,1.02500,    39,     7.000, 0.00000E+0, 1.89000E-1, 0.00000E+0, 0.00000E+0,1.00000,0,  100.0,     6.160,     0.000,   1,1.0000
   107,'6 ',     0.000,     3.488,     4.200,     0.000,1.02500,    39,     7.000, 0.00000E+0, 2.20000E-1, 0.00000E+0, 0.00000E+0,1.00000,0,  100.0,     6.160,     0.000,   1,1.0000
   107,'7 ',     0.000,     3.029,     4.200,     0.000,1.02500,    39,     7.000, 0.00000E+0, 2.20000E-1, 0.00000E+0, 0.00000E+0,1.00000,0,  100.0,     6.160,     0.000,   1,1.0000
   107,'9 ',     0.000,     0.913,     4.200,     0.000,1.02500,    39,     7.000, 0.00000E+0, 1.89000E-1, 0.00000E+0, 0.00000E+0,1.00000,0,  100.0,     6.160,     0.000,   1,1.0000
   108,'0 ',     6.000,     1.026,     9.375,     0.000,1.02500,    39,    15.625, 0.00000E+0, 1.94000E-1, 0.00000E+0, 0.00000E+0,1.00000,0,  100.0,    13.750,     0.000,   1,1.0000
   108,'1 ',     7.960,     1.042,     9.375,     0.000,1.02500,    39,    15.625, 0.00000E+0, 1.94000E-1, 0.00000E+0, 0.00000E+0,1.00000,0,  100.0,    13.750,     0.000,   1,1.0000
   109,'2 ',     0.000,     2.129,     9.375,     0.000,1.02500,    39,    15.625, 0.00000E+0, 1.94000E-1, 0.00000E+0, 0.00000E+0,1.00000,0,  100.0,    13.750,     0.000,   1,1.0000
   109,'3 ',     0.000,     3.534,     9.375,     0.000,1.02500,    39,    15.625, 0.00000E+0, 1.94000E-1, 0.00000E+0, 0.00000E+0,1.00000,0,  100.0,    13.750,     0.000,   1,1.0000
   110,'1 ',     0.000,     1.321,     1.875,     0.000,1.02500,    39,     3.440, 0.00000E+0, 2.98000E-1, 0.00000E+0, 0.00000E+0,1.00000,0,  100.0,     2.750,     0.000,   1,1.0000
   110,'2 ',     0.000,     1.323,     1.875,     0.000,1.02500,    39,     3.440, 0.00000E+0, 2.98000E-1, 0.00000E+0, 0.00000E+0,1.00000,0,  100.0,     2.750,     0.000,   1,1.0000
   112,'P1',     0.178,     0.000,     0.000,     0.000,1.00000,     0,     0.377, 0.00000E+0, 9.99900E+3, 0.00000E+0, 0.00000E+0,1.00000,1,  100.0,     0.377,     0.000,   1,1.0000,    ,      ,    ,      ,    ,      ,1, 1.0000
   112,'P3',     0.739,    -0.150,    -0.150,    -0.150,1.00000,     0,     1.787, 0.00000E+0, 9.99900E+3, 0.00000E+0, 0.00000E+0,1.00000,1,  100.0,     1.751,     0.000,   1,1.0000,    ,      ,    ,      ,    ,      ,1, 1.0000
   123,'P1',     0.033,     0.000,     0.000,     0.000,1.00000,     0,     0.070, 0.00000E+0, 9.99900E+3, 0.00000E+0, 0.00000E+0,1.00000,1,  100.0,     0.070,     0.000,   1,1.0000,    ,      ,    ,      ,    ,      ,1, 1.0000
   123,'P2',     0.301,     0.000,     0.000,     0.000,1.00000,     0,     0.579, 0.00000E+0, 9.99900E+3, 0.00000E+0, 0.00000E+0,1.00000,1,  100.0,     0.579,     0.000,   1,1.0000,    ,      ,    ,      ,    ,      ,1, 1.0000
   123,'P3',     0.292,    -0.059,    -0.059,    -0.059,1.00000,     0,     0.706, 0.00000E+0, 9.99900E+3, 0.00000E+0, 0.00000E+0,1.00000,1,  100.0,     0.692,     0.000,   1,1.0000,    ,      ,    ,      ,    ,      ,1, 1.0000
   125,'P1',     0.100,     0.000,     0.000,     0.000,1.00000,     0,     0.213, 0.00000E+0, 9.99900E+3, 0.00000E+0, 0.00000E+0,1.00000,1,  100.0,     0.213,     0.000,   1,1.0000,    ,      ,    ,      ,    ,      ,1, 1.0000
   125,'P2',     0.414,     0.000,     0.000,     0.000,1.00000,     0,     0.795, 0.00000E+0, 9.99900E+3, 0.00000E+0, 0.00000E+0,1.00000,1,  100.0,     0.795,     0.000,   1,1.0000,    ,      ,    ,      ,    ,      ,1, 1.0000
   125,'P3',     0.621,    -0.126,    -0.126,    -0.126,1.00000,     0,     1.502, 0.00000E+0, 9.99900E+3, 0.00000E+0, 0.00000E+0,1.00000,1,  100.0,     1.472,     0.000,   1,1.0000,    ,      ,    ,      ,    ,      ,1, 1.0000
   129,'P1',     0.059,     0.000,     0.000,     0.000,1.00000,     0,     0.125, 0.00000E+0, 9.99900E+3, 0.00000E+0, 0.00000E+0,1.00000,1,  100.0,     0.125,     0.000,   1,1.0000,    ,      ,    ,      ,    ,      ,1, 1.0000
   129,'P2',     0.284,     0.000,     0.000,     0.000,1.00000,     0,     0.546, 0.00000E+0, 9.99900E+3, 0.00000E+0, 0.00000E+0,1.00000,1,  100.0,     0.546,     0.000,   1,1.0000,    ,      ,    ,      ,    ,      ,1, 1.0000
   129,'P3',     0.112,    -0.023,    -0.023,    -0.023,1.00000,     0,     0.272, 0.00000E+0, 9.99900E+3, 0.00000E+0, 0.00000E+0,1.00000,1,  100.0,     0.266,     0.000,   1,1.0000,    ,      ,    ,      ,    ,      ,1, 1.0000
   130,'P1',     0.117,     0.000,     0.000,     0.000,1.00000,     0,     0.248, 0.00000E+0, 9.99900E+3, 0.00000E+0, 0.00000E+0,1.00000,1,  100.0,     0.248,     0.000,   1,1.0000,    ,      ,    ,      ,    ,      ,1, 1.0000
   130,'P2',     0.483,     0.000,     0.000,     0.000,1.00000,     0,     0.929, 0.00000E+0, 9.99900E+3, 0.00000E+0, 0.00000E+0,1.00000,1,  100.0,     0.929,     0.000,   1,1.0000,    ,      ,    ,      ,    ,      ,1, 1.0000
   130,'P3',     0.606,    -0.123,    -0.123,    -0.123,1.00000,     0,     1.466, 0.00000E+0, 9.99900E+3, 0.00000E+0, 0.00000E+0,1.00000,1,  100.0,     1.437,     0.000,   1,1.0000,    ,      ,    ,      ,    ,      ,1, 1.0000
   134,'P1',     0.003,     0.000,     0.000,     0.000,1.00000,     0,     0.007, 0.00000E+0, 9.99900E+3, 0.00000E+0, 0.00000E+0,1.00000,1,  100.0,     0.007,     0.000,   1,1.0000,    ,      ,    ,      ,    ,      ,1, 1.0000
   134,'P2',     0.176,     0.000,     0.000,     0.000,1.00000,     0,     0.337, 0.00000E+0, 9.99900E+3, 0.00000E+0, 0.00000E+0,1.00000,1,  100.0,     0.337,     0.000,   1,1.0000,    ,      ,    ,      ,    ,      ,1, 1.0000
   134,'P3',     0.166,    -0.034,    -0.034,    -0.034,1.00000,     0,     0.400, 0.00000E+0, 9.99900E+3, 0.00000E+0, 0.00000E+0,1.00000,1,  100.0,     0.392,     0.000,   1,1.0000,    ,      ,    ,      ,    ,      ,1, 1.0000
   135,'P1',     0.133,     0.000,     0.000,     0.000,1.00000,     0,     0.282, 0.00000E+0, 9.99900E+3, 0.00000E+0, 0.00000E+0,1.00000,1,  100.0,     0.282,     0.000,   1,1.0000,    ,      ,    ,      ,    ,      ,1, 1.0000
   135,'P2',     0.898,     0.000,     0.000,     0.000,1.00000,     0,     1.725, 0.00000E+0, 9.99900E+3, 0.00000E+0, 0.00000E+0,1.00000,1,  100.0,     1.725,     0.000,   1,1.0000,    ,      ,    ,      ,    ,      ,1, 1.0000
   135,'P3',     1.183,    -0.240,    -0.240,    -0.240,1.00000,     0,     2.860, 0.00000E+0, 9.99900E+3, 0.00000E+0, 0.00000E+0,1.00000,1,  100.0,     2.803,     0.000,   1,1.0000,    ,      ,    ,      ,    ,      ,1, 1.0000
   136,'P1',     0.023,     0.000,     0.000,     0.000,1.00000,     0,     0.050, 0.00000E+0, 9.99900E+3, 0.00000E+0, 0.00000E+0,1.00000,1,  100.0,     0.050,     0.000,   1,1.0000,    ,      ,    ,      ,    ,      ,1, 1.0000
   136,'P2',     0.358,     0.000,     0.000,     0.000,1.00000,     0,     0.688, 0.00000E+0, 9.99900E+3, 0.00000E+0, 0.00000E+0,1.00000,1,  100.0,     0.688,     0.000,   1,1.0000,    ,      ,    ,      ,    ,      ,1, 1.0000
   136,'P3',     0.338,    -0.069,    -0.069,    -0.069,1.00000,     0,     0.817, 0.00000E+0, 9.99900E+3, 0.00000E+0, 0.00000E+0,1.00000,1,  100.0,     0.801,     0.000,   1,1.0000,    ,      ,    ,      ,    ,      ,1, 1.0000
   139,'P1',     0.114,     0.000,     0.000,     0.000,1.00000,     0,     0.242, 0.00000E+0, 9.99900E+3, 0.00000E+0, 0.00000E+0,1.00000,1,  100.0,     0.242,     0.000,   1,1.0000,    ,      ,    ,      ,    ,      ,1, 1.0000
   139,'P2',     1.024,     0.000,     0.000,     0.000,1.00000,     0,     1.967, 0.00000E+0, 9.99900E+3, 0.00000E+0, 0.00000E+0,1.00000,1,  100.0,     1.967,     0.000,   1,1.0000,    ,      ,    ,      ,    ,      ,1, 1.0000
   139,'P3',     0.900,    -0.183,    -0.183,    -0.183,1.00000,     0,     2.177, 0.00000E+0, 9.99900E+3, 0.00000E+0, 0.00000E+0,1.00000,1,  100.0,     2.134,     0.000,   1,1.0000,    ,      ,    ,      ,    ,      ,1, 1.0000
   141,'P1',     0.005,     0.000,     0.000,     0.000,1.00000,     0,     0.011, 0.00000E+0, 9.99900E+3, 0.00000E+0, 0.00000E+0,1.00000,1,  100.0,     0.011,     0.000,   1,1.0000,    ,      ,    ,      ,    ,      ,1, 1.0000
   141,'P3',     0.016,    -0.003,    -0.003,    -0.003,1.00000,     0,     0.039, 0.00000E+0, 9.99900E+3, 0.00000E+0, 0.00000E+0,1.00000,1,  100.0,     0.038,     0.000,   1,1.0000,    ,      ,    ,      ,    ,      ,1, 1.0000
   142,'P1',     0.030,     0.000,     0.000,     0.000,1.00000,     0,     0.064, 0.00000E+0, 9.99900E+3, 0.00000E+0, 0.00000E+0,1.00000,1,  100.0,     0.064,     0.000,   1,1.0000,    ,      ,    ,      ,    ,      ,1, 1.0000
   142,'P3',     0.007,    -0.001,    -0.001,    -0.001,1.00000,     0,     0.017, 0.00000E+0, 9.99900E+3, 0.00000E+0, 0.00000E+0,1.00000,1,  100.0,     0.016,     0.000,   1,1.0000,    ,      ,    ,      ,    ,      ,1, 1.0000
   150,'P1',     0.065,     0.000,     0.000,     0.000,1.00000,     0,     0.137, 0.00000E+0, 9.99900E+3, 0.00000E+0, 0.00000E+0,1.00000,1,  100.0,     0.137,     0.000,   1,1.0000,    ,      ,    ,      ,    ,      ,1, 1.0000
   150,'P2',     0.985,     0.000,     0.000,     0.000,1.00000,     0,     1.893, 0.00000E+0, 9.99900E+3, 0.00000E+0, 0.00000E+0,1.00000,1,  100.0,     1.893,     0.000,   1,1.0000,    ,      ,    ,      ,    ,      ,1, 1.0000
   150,'P3',     0.681,    -0.138,    -0.138,    -0.138,1.00000,     0,     1.646, 0.00000E+0, 9.99900E+3, 0.00000E+0, 0.00000E+0,1.00000,1,  100.0,     1.613,     0.000,   1,1.0000,    ,      ,    ,      ,    ,      ,1, 1.0000
   155,'P1',     0.030,     0.000,     0.000,     0.000,1.00000,     0,     0.064, 0.00000E+0, 9.99900E+3, 0.00000E+0, 0.00000E+0,1.00000,1,  100.0,     0.064,     0.000,   1,1.0000,    ,      ,    ,      ,    ,      ,1, 1.0000
   155,'P2',     0.099,     0.000,     0.000,     0.000,1.00000,     0,     0.191, 0.00000E+0, 9.99900E+3, 0.00000E+0, 0.00000E+0,1.00000,1,  100.0,     0.191,     0.000,   1,1.0000,    ,      ,    ,      ,    ,      ,1, 1.0000
   155,'P3',     0.169,    -0.034,    -0.034,    -0.034,1.00000,     0,     0.408, 0.00000E+0, 9.99900E+3, 0.00000E+0, 0.00000E+0,1.00000,1,  100.0,     0.400,     0.000,   1,1.0000,    ,      ,    ,      ,    ,      ,1, 1.0000
   173,'P1',     0.045,     0.000,     0.000,     0.000,1.00000,     0,     0.094, 0.00000E+0, 9.99900E+3, 0.00000E+0, 0.00000E+0,1.00000,1,  100.0,     0.094,     0.000,   1,1.0000,    ,      ,    ,      ,    ,      ,1, 1.0000
   173,'P2',     0.119,     0.000,     0.000,     0.000,1.00000,     0,     0.228, 0.00000E+0, 9.99900E+3, 0.00000E+0, 0.00000E+0,1.00000,1,  100.0,     0.228,     0.000,   1,1.0000,    ,      ,    ,      ,    ,      ,1, 1.0000
   173,'P3',     0.133,    -0.027,    -0.027,    -0.027,1.00000,     0,     0.322, 0.00000E+0, 9.99900E+3, 0.00000E+0, 0.00000E+0,1.00000,1,  100.0,     0.315,     0.000,   1,1.0000,    ,      ,    ,      ,    ,      ,1, 1.0000
   174,'P1',     0.019,     0.000,     0.000,     0.000,1.00000,     0,     0.041, 0.00000E+0, 9.99900E+3, 0.00000E+0, 0.00000E+0,1.00000,1,  100.0,     0.041,     0.000,   1,1.0000,    ,      ,    ,      ,    ,      ,1, 1.0000
   174,'P3',     0.070,    -0.014,    -0.014,    -0.014,1.00000,     0,     0.170, 0.00000E+0, 9.99900E+3, 0.00000E+0, 0.00000E+0,1.00000,1,  100.0,     0.166,     0.000,   1,1.0000,    ,      ,    ,      ,    ,      ,1, 1.0000
   175,'P1',     0.030,     0.000,     0.000,     0.000,1.00000,     0,     0.064, 0.00000E+0, 9.99900E+3, 0.00000E+0, 0.00000E+0,1.00000,1,  100.0,     0.064,     0.000,   1,1.0000,    ,      ,    ,      ,    ,      ,1, 1.0000
   175,'P2',     0.012,     0.000,     0.000,     0.000,1.00000,     0,     0.024, 0.00000E+0, 9.99900E+3, 0.00000E+0, 0.00000E+0,1.00000,1,  100.0,     0.024,     0.000,   1,1.0000,    ,      ,    ,      ,    ,      ,1, 1.0000
   175,'P3',     0.184,    -0.037,    -0.037,    -0.037,1.00000,     0,     0.446, 0.00000E+0, 9.99900E+3, 0.00000E+0, 0.00000E+0,1.00000,1,  100.0,     0.437,     0.000,   1,1.0000,    ,      ,    ,      ,    ,      ,1, 1.0000
   192,'P1',     0.055,     0.000,     0.000,     0.000,1.00000,     0,     0.116, 0.00000E+0, 9.99900E+3, 0.00000E+0, 0.00000E+0,1.00000,1,  100.0,     0.116,     0.000,   1,1.0000,    ,      ,    ,      ,    ,      ,1, 1.0000
   192,'P2',     0.237,     0.000,     0.000,     0.000,1.00000,     0,     0.456, 0.00000E+0, 9.99900E+3, 0.00000E+0, 0.00000E+0,1.00000,1,  100.0,     0.456,     0.000,   1,1.0000,    ,      ,    ,      ,    ,      ,1, 1.0000
   192,'P3',     0.231,    -0.047,    -0.047,    -0.047,1.00000,     0,     0.558, 0.00000E+0, 9.99900E+3, 0.00000E+0, 0.00000E+0,1.00000,1,  100.0,     0.546,     0.000,   1,1.0000,    ,      ,    ,      ,    ,      ,1, 1.0000
   203,'P1',     0.053,     0.000,     0.000,     0.000,1.00000,     0,     0.113, 0.00000E+0, 9.99900E+3, 0.00000E+0, 0.00000E+0,1.00000,1,  100.0,     0.113,     0.000,   1,1.0000,    ,      ,    ,      ,    ,      ,1, 1.0000
   203,'P2',     2.689,     0.000,     0.000,     0.000,1.00000,     0,     5.165, 0.00000E+0, 9.99900E+3, 0.00000E+0, 0.00000E+0,1.00000,1,  100.0,     5.165,     0.000,   1,1.0000,    ,      ,    ,      ,    ,      ,1, 1.0000
   203,'P3',     0.951,    -0.193,    -0.193,    -0.193,1.00000,     0,     2.301, 0.00000E+0, 9.99900E+3, 0.00000E+0, 0.00000E+0,1.00000,1,  100.0,     2.255,     0.000,   1,1.0000,    ,      ,    ,      ,    ,      ,1, 1.0000
   204,'P1',     0.009,     0.000,     0.000,     0.000,1.00000,     0,     0.020, 0.00000E+0, 9.99900E+3, 0.00000E+0, 0.00000E+0,1.00000,1,  100.0,     0.020,     0.000,   1,1.0000,    ,      ,    ,      ,    ,      ,1, 1.0000
   204,'P3',     0.623,    -0.126,    -0.126,    -0.126,1.00000,     0,     1.506, 0.00000E+0, 9.99900E+3, 0.00000E+0, 0.00000E+0,1.00000,1,  100.0,     1.476,     0.000,   1,1.0000,    ,      ,    ,      ,    ,      ,1, 1.0000
   205,'P1',     0.103,     0.000,     0.000,     0.000,1.00000,     0,     0.219, 0.00000E+0, 9.99900E+3, 0.00000E+0, 0.00000E+0,1.00000,1,  100.0,     0.219,     0.000,   1,1.0000,    ,      ,    ,      ,    ,      ,1, 1.0000
   205,'P3',     1.033,    -0.210,    -0.210,    -0.210,1.00000,     0,     2.498, 0.00000E+0, 9.99900E+3, 0.00000E+0, 0.00000E+0,1.00000,1,  100.0,     2.448,     0.000,   1,1.0000,    ,      ,    ,      ,    ,      ,1, 1.0000
   209,'P1',     0.030,     0.000,     0.000,     0.000,1.00000,     0,     0.064, 0.00000E+0, 9.99900E+3, 0.00000E+0, 0.00000E+0,1.00000,1,  100.0,     0.064,     0.000,   1,1.0000,    ,      ,    ,      ,    ,      ,1, 1.0000
   209,'P3',     0.001,     0.000,     0.000,     0.000,1.00000,     0,     0.002, 0.00000E+0, 9.99900E+3, 0.00000E+0, 0.00000E+0,1.00000,1,  100.0,     0.002,     0.000,   1,1.0000,    ,      ,    ,      ,    ,      ,1, 1.0000
   216,'P1',     0.124,     0.000,     0.000,     0.000,1.00000,     0,     0.263, 0.00000E+0, 9.99900E+3, 0.00000E+0, 0.00000E+0,1.00000,1,  100.0,     0.263,     0.000,   1,1.0000,    ,      ,    ,      ,    ,      ,1, 1.0000
   216,'P3',     0.658,    -0.134,    -0.134,    -0.134,1.00000,     0,     1.593, 0.00000E+0, 9.99900E+3, 0.00000E+0, 0.00000E+0,1.00000,1,  100.0,     1.561,     0.000,   1,1.0000,    ,      ,    ,      ,    ,      ,1, 1.0000
   225,'P1',     0.040,     0.000,     0.000,     0.000,1.00000,     0,     0.085, 0.00000E+0, 9.99900E+3, 0.00000E+0, 0.00000E+0,1.00000,1,  100.0,     0.085,     0.000,   1,1.0000,    ,      ,    ,      ,    ,      ,1, 1.0000
   225,'P2',     0.259,     0.000,     0.000,     0.000,1.00000,     0,     0.497, 0.00000E+0, 9.99900E+3, 0.00000E+0, 0.00000E+0,1.00000,1,  100.0,     0.497,     0.000,   1,1.0000,    ,      ,    ,      ,    ,      ,1, 1.0000
   225,'P3',     0.800,    -0.162,    -0.162,    -0.162,1.00000,     0,     1.934, 0.00000E+0, 9.99900E+3, 0.00000E+0, 0.00000E+0,1.00000,1,  100.0,     1.895,     0.000,   1,1.0000,    ,      ,    ,      ,    ,      ,1, 1.0000
   234,'P1',     0.023,     0.000,     0.000,     0.000,1.00000,     0,     0.048, 0.00000E+0, 9.99900E+3, 0.00000E+0, 0.00000E+0,1.00000,1,  100.0,     0.048,     0.000,   1,1.0000,    ,      ,    ,      ,    ,      ,1, 1.0000
   234,'P2',     0.540,     0.000,     0.000,     0.000,1.00000,     0,     1.037, 0.00000E+0, 9.99900E+3, 0.00000E+0, 0.00000E+0,1.00000,1,  100.0,     1.037,     0.000,   1,1.0000,    ,      ,    ,      ,    ,      ,1, 1.0000
   234,'P3',     0.651,    -0.132,    -0.132,    -0.132,1.00000,     0,     1.574, 0.00000E+0, 9.99900E+3, 0.00000E+0, 0.00000E+0,1.00000,1,  100.0,     1.542,     0.000,   1,1.0000,    ,      ,    ,      ,    ,      ,1, 1.0000
   235,'P1',     0.112,     0.000,     0.000,     0.000,1.00000,     0,     0.237, 0.00000E+0, 9.99900E+3, 0.00000E+0, 0.00000E+0,1.00000,1,  100.0,     0.237,     0.000,   1,1.0000,    ,      ,    ,      ,    ,      ,1, 1.0000
   235,'P2',     7.052,     0.000,     0.000,     0.000,1.00000,     0,    13.549, 0.00000E+0, 9.99900E+3, 0.00000E+0, 0.00000E+0,1.00000,1,  100.0,    13.549,     0.000,   1,1.0000,    ,      ,    ,      ,    ,      ,1, 1.0000
   235,'P3',     2.571,    -0.522,    -0.522,    -0.522,1.00000,     0,     6.218, 0.00000E+0, 9.99900E+3, 0.00000E+0, 0.00000E+0,1.00000,1,  100.0,     6.094,     0.000,   1,1.0000,    ,      ,    ,      ,    ,      ,1, 1.0000
   241,'P1',     0.003,     0.000,     0.000,     0.000,1.00000,     0,     0.006, 0.00000E+0, 9.99900E+3, 0.00000E+0, 0.00000E+0,1.00000,1,  100.0,     0.006,     0.000,   1,1.0000,    ,      ,    ,      ,    ,      ,1, 1.0000
   241,'P3',     0.037,    -0.007,    -0.007,    -0.007,1.00000,     0,     0.089, 0.00000E+0, 9.99900E+3, 0.00000E+0, 0.00000E+0,1.00000,1,  100.0,     0.087,     0.000,   1,1.0000,    ,      ,    ,      ,    ,      ,1, 1.0000
   301,'1 ',     9.000,     4.708,    15.000,     0.000,0.99300,     0,    26.813, 0.00000E+0, 1.63000E-1, 0.00000E+0, 0.00000E+0,1.09770,1,  100.0,    21.450,     0.000,   1,1.0000
   302,'2 ',     9.000,    15.000,    15.000,     0.000,1.02500,    39,    26.813, 0.00000E+0, 1.63000E-1, 0.00000E+0, 0.00000E+0,1.09770,1,  100.0,    21.450,     0.000,   1,1.0000
   303,'3 ',     4.000,    12.000,    12.000,     0.000,1.02500,    39,    18.500, 0.00000E+0, 1.80000E-1, 0.00000E+0, 0.00000E+0,1.09770,1,  100.0,    15.000,     0.000,   1,1.0000
   304,'4 ',     5.900,     6.890,    15.000,     0.000,1.02500,    39,    26.813, 0.00000E+0, 1.63000E-1, 0.00000E+0, 0.00000E+0,1.00000,0,  100.0,    21.450,     0.000,   1,1.0000
   305,'5 ',     5.900,     0.000,    15.000,     0.000,1.02500,    39,    26.813, 0.00000E+0, 1.63000E-1, 0.00000E+0, 0.00000E+0,1.00000,0,  100.0,    21.450,     0.000,   1,1.0000
   306,'6 ',     3.000,     6.890,    12.000,     0.000,1.02500,    39,    18.500, 0.00000E+0, 1.80000E-1, 0.00000E+0, 0.00000E+0,1.00000,0,  100.0,    14.800,     0.000,   1,1.0000
   325,'P1',     0.013,     0.000,     0.000,     0.000,1.00000,     0,     0.027, 0.00000E+0, 9.99900E+3, 0.00000E+0, 0.00000E+0,1.00000,1,  100.0,     0.027,     0.000,   1,1.0000,    ,      ,    ,      ,    ,      ,1, 1.0000
   325,'P2',     0.065,     0.000,     0.000,     0.000,1.00000,     0,     0.125, 0.00000E+0, 9.99900E+3, 0.00000E+0, 0.00000E+0,1.00000,1,  100.0,     0.125,     0.000,   1,1.0000,    ,      ,    ,      ,    ,      ,1, 1.0000
   325,'P3',     0.127,    -0.026,    -0.026,    -0.026,1.00000,     0,     0.308, 0.00000E+0, 9.99900E+3, 0.00000E+0, 0.00000E+0,1.00000,1,  100.0,     0.302,     0.000,   1,1.0000,    ,      ,    ,      ,    ,      ,1, 1.0000
   335,'P1',     0.036,     0.000,     0.000,     0.000,1.00000,     0,     0.076, 0.00000E+0, 9.99900E+3, 0.00000E+0, 0.00000E+0,1.00000,1,  100.0,     0.076,     0.000,   1,1.0000,    ,      ,    ,      ,    ,      ,1, 1.0000
   335,'P2',     0.267,     0.000,     0.000,     0.000,1.00000,     0,     0.513, 0.00000E+0, 9.99900E+3, 0.00000E+0, 0.00000E+0,1.00000,1,  100.0,     0.513,     0.000,   1,1.0000,    ,      ,    ,      ,    ,      ,1, 1.0000
   335,'P3',     0.362,    -0.073,    -0.073,    -0.073,1.00000,     0,     0.875, 0.00000E+0, 9.99900E+3, 0.00000E+0, 0.00000E+0,1.00000,1,  100.0,     0.857,     0.000,   1,1.0000,    ,      ,    ,      ,    ,      ,1, 1.0000
   336,'P1',     0.219,     0.000,     0.000,     0.000,1.00000,     0,     0.465, 0.00000E+0, 9.99900E+3, 0.00000E+0, 0.00000E+0,1.00000,1,  100.0,     0.465,     0.000,   1,1.0000,    ,      ,    ,      ,    ,      ,1, 1.0000
   336,'P2',     4.387,     0.000,     0.000,     0.000,1.00000,     0,     8.429, 0.00000E+0, 9.99900E+3, 0.00000E+0, 0.00000E+0,1.00000,1,  100.0,     8.429,     0.000,   1,1.0000,    ,      ,    ,      ,    ,      ,1, 1.0000
   336,'P3',     1.707,    -0.347,    -0.347,    -0.347,1.00000,     0,     4.129, 0.00000E+0, 9.99900E+3, 0.00000E+0, 0.00000E+0,1.00000,1,  100.0,     4.047,     0.000,   1,1.0000,    ,      ,    ,      ,    ,      ,1, 1.0000
   403,'P1',     0.018,     0.000,     0.000,     0.000,1.00000,     0,     0.037, 0.00000E+0, 9.99900E+3, 0.00000E+0, 0.00000E+0,1.00000,1,  100.0,     0.037,     0.000,   1,1.0000,    ,      ,    ,      ,    ,      ,1, 1.0000
   403,'P2',     0.154,     0.000,     0.000,     0.000,1.00000,     0,     0.295, 0.00000E+0, 9.99900E+3, 0.00000E+0, 0.00000E+0,1.00000,1,  100.0,     0.295,     0.000,   1,1.0000,    ,      ,    ,      ,    ,      ,1, 1.0000
   403,'P3',     0.194,    -0.039,    -0.039,    -0.039,1.00000,     0,     0.469, 0.00000E+0, 9.99900E+3, 0.00000E+0, 0.00000E+0,1.00000,1,  100.0,     0.460,     0.000,   1,1.0000,    ,      ,    ,      ,    ,      ,1, 1.0000
   404,'P1',     0.022,     0.000,     0.000,     0.000,1.00000,     0,     0.046, 0.00000E+0, 9.99900E+3, 0.00000E+0, 0.00000E+0,1.00000,1,  100.0,     0.046,     0.000,   1,1.0000,    ,      ,    ,      ,    ,      ,1, 1.0000
   404,'P2',     0.150,     0.000,     0.000,     0.000,1.00000,     0,     0.287, 0.00000E+0, 9.99900E+3, 0.00000E+0, 0.00000E+0,1.00000,1,  100.0,     0.287,     0.000,   1,1.0000,    ,      ,    ,      ,    ,      ,1, 1.0000
   404,'P3',     0.136,    -0.028,    -0.028,    -0.028,1.00000,     0,     0.328, 0.00000E+0, 9.99900E+3, 0.00000E+0, 0.00000E+0,1.00000,1,  100.0,     0.322,     0.000,   1,1.0000,    ,      ,    ,      ,    ,      ,1, 1.0000
   405,'P1',     0.030,     0.000,     0.000,     0.000,1.00000,     0,     0.064, 0.00000E+0, 9.99900E+3, 0.00000E+0, 0.00000E+0,1.00000,1,  100.0,     0.064,     0.000,   1,1.0000,    ,      ,    ,      ,    ,      ,1, 1.0000
   405,'P2',     0.049,     0.000,     0.000,     0.000,1.00000,     0,     0.095, 0.00000E+0, 9.99900E+3, 0.00000E+0, 0.00000E+0,1.00000,1,  100.0,     0.095,     0.000,   1,1.0000,    ,      ,    ,      ,    ,      ,1, 1.0000
   405,'P3',     0.483,    -0.098,    -0.098,    -0.098,1.00000,     0,     1.169, 0.00000E+0, 9.99900E+3, 0.00000E+0, 0.00000E+0,1.00000,1,  100.0,     1.146,     0.000,   1,1.0000,    ,      ,    ,      ,    ,      ,1, 1.0000
   415,'P1',     0.089,     0.000,     0.000,     0.000,1.00000,     0,     0.189, 0.00000E+0, 9.99900E+3, 0.00000E+0, 0.00000E+0,1.00000,1,  100.0,     0.189,     0.000,   1,1.0000,    ,      ,    ,      ,    ,      ,1, 1.0000
   415,'P2',     1.092,     0.000,     0.000,     0.000,1.00000,     0,     2.098, 0.00000E+0, 9.99900E+3, 0.00000E+0, 0.00000E+0,1.00000,1,  100.0,     2.098,     0.000,   1,1.0000,    ,      ,    ,      ,    ,      ,1, 1.0000
   415,'P3',     0.626,    -0.127,    -0.127,    -0.127,1.00000,     0,     1.514, 0.00000E+0, 9.99900E+3, 0.00000E+0, 0.00000E+0,1.00000,1,  100.0,     1.484,     0.000,   1,1.0000,    ,      ,    ,      ,    ,      ,1, 1.0000
   418,'P1',     0.039,     0.000,     0.000,     0.000,1.00000,     0,     0.083, 0.00000E+0, 9.99900E+3, 0.00000E+0, 0.00000E+0,1.00000,1,  100.0,     0.083,     0.000,   1,1.0000,    ,      ,    ,      ,    ,      ,1, 1.0000
   418,'P3',     0.292,    -0.059,    -0.059,    -0.059,1.00000,     0,     0.706, 0.00000E+0, 9.99900E+3, 0.00000E+0, 0.00000E+0,1.00000,1,  100.0,     0.692,     0.000,   1,1.0000,    ,      ,    ,      ,    ,      ,1, 1.0000
   425,'P1',     0.060,     0.000,     0.000,     0.000,1.00000,     0,     0.128, 0.00000E+0, 9.99900E+3, 0.00000E+0, 0.00000E+0,1.00000,1,  100.0,     0.128,     0.000,   1,1.0000,    ,      ,    ,      ,    ,      ,1, 1.0000
   425,'P2',     0.325,     0.000,     0.000,     0.000,1.00000,     0,     0.625, 0.00000E+0, 9.99900E+3, 0.00000E+0, 0.00000E+0,1.00000,1,  100.0,     0.625,     0.000,   1,1.0000,    ,      ,    ,      ,    ,      ,1, 1.0000
   425,'P3',     0.438,    -0.089,    -0.089,    -0.089,1.00000,     0,     1.060, 0.00000E+0, 9.99900E+3, 0.00000E+0, 0.00000E+0,1.00000,1,  100.0,     1.039,     0.000,   1,1.0000,    ,      ,    ,      ,    ,      ,1, 1.0000
   431,'P1',     0.070,     0.000,     0.000,     0.000,1.00000,     0,     0.149, 0.00000E+0, 9.99900E+3, 0.00000E+0, 0.00000E+0,1.00000,1,  100.0,     0.149,     0.000,  31,1.0000,    ,      ,    ,      ,    ,      ,1, 1.0000
   431,'P2',     0.514,     0.000,     0.000,     0.000,1.00000,     0,     0.987, 0.00000E+0, 9.99900E+3, 0.00000E+0, 0.00000E+0,1.00000,1,  100.0,     0.987,     0.000,  31,1.0000,    ,      ,    ,      ,    ,      ,1, 1.0000
   431,'P3',     0.018,    -0.004,    -0.004,    -0.004,1.00000,     0,     0.044, 0.00000E+0, 9.99900E+3, 0.00000E+0, 0.00000E+0,1.00000,1,  100.0,     0.043,     0.000,  31,1.0000,    ,      ,    ,      ,    ,      ,1, 1.0000
   435,'P1',     0.122,     0.000,     0.000,     0.000,1.00000,     0,     0.259, 0.00000E+0, 9.99900E+3, 0.00000E+0, 0.00000E+0,1.00000,1,  100.0,     0.259,     0.000,   1,1.0000,    ,      ,    ,      ,    ,      ,1, 1.0000
   435,'P2',     1.054,     0.000,     0.000,     0.000,1.00000,     0,     2.026, 0.00000E+0, 9.99900E+3, 0.00000E+0, 0.00000E+0,1.00000,1,  100.0,     2.026,     0.000,   1,1.0000,    ,      ,    ,      ,    ,      ,1, 1.0000
   435,'P3',     1.514,    -0.307,    -0.307,    -0.307,1.00000,     0,     3.662, 0.00000E+0, 9.99900E+3, 0.00000E+0, 0.00000E+0,1.00000,1,  100.0,     3.588,     0.000,   1,1.0000,    ,      ,    ,      ,    ,      ,1, 1.0000
   436,'P1',     0.011,     0.000,     0.000,     0.000,1.00000,     0,     0.024, 0.00000E+0, 9.99900E+3, 0.00000E+0, 0.00000E+0,1.00000,1,  100.0,     0.024,     0.000,   1,1.0000,    ,      ,    ,      ,    ,      ,1, 1.0000
   436,'P2',     0.087,     0.000,     0.000,     0.000,1.00000,     0,     0.167, 0.00000E+0, 9.99900E+3, 0.00000E+0, 0.00000E+0,1.00000,1,  100.0,     0.167,     0.000,   1,1.0000,    ,      ,    ,      ,    ,      ,1, 1.0000
   436,'P3',     0.048,    -0.010,    -0.010,    -0.010,1.00000,     0,     0.116, 0.00000E+0, 9.99900E+3, 0.00000E+0, 0.00000E+0,1.00000,1,  100.0,     0.114,     0.000,   1,1.0000,    ,      ,    ,      ,    ,      ,1, 1.0000
   440,'P1',     0.006,     0.000,     0.000,     0.000,1.00000,     0,     0.013, 0.00000E+0, 9.99900E+3, 0.00000E+0, 0.00000E+0,1.00000,1,  100.0,     0.013,     0.000,   1,1.0000,    ,      ,    ,      ,    ,      ,1, 1.0000
   440,'P2',     0.302,     0.000,     0.000,     0.000,1.00000,     0,     0.579, 0.00000E+0, 9.99900E+3, 0.00000E+0, 0.00000E+0,1.00000,1,  100.0,     0.579,     0.000,   1,1.0000,    ,      ,    ,      ,    ,      ,1, 1.0000
   440,'P3',     0.332,    -0.067,    -0.067,    -0.067,1.00000,     0,     0.804, 0.00000E+0, 9.99900E+3, 0.00000E+0, 0.00000E+0,1.00000,1,  100.0,     0.788,     0.000,   1,1.0000,    ,      ,    ,      ,    ,      ,1, 1.0000
   443,'P1',     0.031,     0.000,     0.000,     0.000,1.00000,     0,     0.065, 0.00000E+0, 9.99900E+3, 0.00000E+0, 0.00000E+0,1.00000,1,  100.0,     0.065,     0.000,   1,1.0000,    ,      ,    ,      ,    ,      ,1, 1.0000
   443,'P2',     0.191,     0.000,     0.000,     0.000,1.00000,     0,     0.368, 0.00000E+0, 9.99900E+3, 0.00000E+0, 0.00000E+0,1.00000,1,  100.0,     0.368,     0.000,   1,1.0000,    ,      ,    ,      ,    ,      ,1, 1.0000
   443,'P3',     0.451,    -0.092,    -0.092,    -0.092,1.00000,     0,     1.090, 0.00000E+0, 9.99900E+3, 0.00000E+0, 0.00000E+0,1.00000,1,  100.0,     1.068,     0.000,   1,1.0000,    ,      ,    ,      ,    ,      ,1, 1.0000
   493,'P1',     0.071,     0.000,     0.000,     0.000,1.00000,     0,     0.151, 0.00000E+0, 9.99900E+3, 0.00000E+0, 0.00000E+0,1.00000,1,  100.0,     0.151,     0.000,   1,1.0000,    ,      ,    ,      ,    ,      ,1, 1.0000
...